Version 4
SHEET 1 1464 680
WIRE 352 -128 176 -128
WIRE 400 -128 352 -128
WIRE 592 -128 496 -128
WIRE 976 -128 672 -128
WIRE 1056 -128 976 -128
WIRE 1152 -128 1056 -128
WIRE 48 32 16 32
WIRE 48 80 48 32
WIRE 128 80 112 80
WIRE 208 80 128 80
WIRE 336 96 288 96
WIRE 208 112 208 80
WIRE 48 144 48 80
WIRE 128 144 128 80
WIRE 592 160 592 -128
WIRE 752 160 592 160
WIRE 288 192 288 96
WIRE 288 192 128 192
WIRE 320 192 288 192
WIRE 400 192 400 96
WIRE 480 192 480 -80
WIRE 480 192 400 192
WIRE -16 224 -64 224
WIRE 208 240 208 176
WIRE 208 240 128 240
WIRE 592 240 592 160
WIRE 592 240 208 240
WIRE -64 272 -64 224
WIRE -64 272 -160 272
WIRE -16 288 -16 272
WIRE -16 288 -112 288
WIRE 320 288 128 288
WIRE 704 288 704 240
WIRE 704 288 400 288
WIRE 752 352 752 256
WIRE -112 400 -112 288
WIRE 320 400 320 288
WIRE 336 400 320 400
WIRE 400 400 400 288
FLAG -176 176 0
FLAG -240 272 0
FLAG -112 480 0
FLAG -64 32 0
FLAG 752 352 0
FLAG 976 -64 0
FLAG 96 -128 0
FLAG 64 320 0
FLAG 16 96 0
FLAG 1152 -48 0
FLAG 352 -64 0
FLAG 1056 -64 0
SYMBOL nmos 400 -80 R270
SYMATTR InstName M1
SYMATTR Value BUK9219-55A
SYMBOL res 0 160 R90
WINDOW 0 0 56 VBottom 2
WINDOW 3 32 56 VTop 2
SYMATTR InstName R1
SYMATTR Value 100k
SYMBOL voltage -80 176 R90
WINDOW 0 -32 56 VBottom 2
WINDOW 3 32 56 VTop 2
WINDOW 123 0 0 Left 0
WINDOW 39 60 56 VTop 2
SYMATTR InstName V1
SYMATTR Value 3.3
SYMATTR SpiceLine Rser=100
SYMBOL voltage -144 272 R90
WINDOW 0 -32 56 VBottom 2
WINDOW 3 32 56 VTop 2
WINDOW 123 0 0 Left 0
WINDOW 39 0 0 Left 0
SYMATTR InstName V2
SYMATTR Value PULSE(0 3.3 1u 20n 20n 1.33u 10u)
SYMBOL res -128 384 R0
SYMATTR InstName R2
SYMATTR Value 20k
SYMBOL voltage 32 32 R90
WINDOW 0 -32 56 VBottom 2
WINDOW 3 32 56 VTop 2
WINDOW 123 0 0 Left 0
WINDOW 39 0 0 Left 0
SYMATTR InstName V3
SYMATTR Value 12
SYMBOL schottky 48 96 R270
WINDOW 0 32 32 VTop 2
WINDOW 3 0 32 VBottom 2
SYMATTR InstName D1
SYMBOL cap 192 112 R0
SYMATTR InstName C1
SYMATTR Value 1µ
SYMBOL res 416 176 R90
WINDOW 0 0 56 VBottom 2
WINDOW 3 32 56 VTop 2
SYMATTR InstName R3
SYMATTR Value 22
SYMBOL schottky 400 80 R90
WINDOW 0 0 32 VBottom 2
WINDOW 3 32 32 VTop 2
SYMATTR InstName D2
SYMBOL res 416 272 R90
WINDOW 0 0 56 VBottom 2
WINDOW 3 32 56 VTop 2
SYMATTR InstName R4
SYMATTR Value 22
SYMBOL schottky 400 384 R90
WINDOW 0 0 32 VBottom 2
WINDOW 3 32 32 VTop 2
SYMATTR InstName D3
SYMBOL cap 960 -128 R0
SYMATTR InstName C2
SYMATTR Value 22µ
SYMBOL voltage 192 -128 R90
WINDOW 0 -32 56 VBottom 2
WINDOW 3 32 56 VTop 2
WINDOW 123 0 0 Left 0
WINDOW 39 0 0 Left 0
SYMATTR InstName V4
SYMATTR Value 30
SYMBOL LM5106 -16 208 R0
SYMATTR InstName U1
SYMBOL nmos 704 160 R0
SYMATTR InstName M3
SYMATTR Value BUK9219-55A
SYMBOL ind 576 -112 R270
WINDOW 0 46 54 VTop 2
WINDOW 3 5 56 VBottom 2
SYMATTR InstName L2
SYMATTR Value 150µ
SYMBOL cap 0 32 R0
SYMATTR InstName C3
SYMATTR Value 1µ
SYMBOL res 1136 -144 R0
SYMATTR InstName R5
SYMATTR Value 100
SYMBOL Contrib\\CHEMI-CON\\Capacitors\\Alcap-SNAPIN\\EKMR451VSN151MQ25S 1040 -128 R0
SYMATTR InstName C5
SYMBOL Contrib\\CHEMI-CON\\Capacitors\\Alcap-SNAPIN\\EKMR451VSN151MQ25S 336 -128 R0
SYMATTR InstName C6
TEXT -632 -256 Left 2 !.include "C:\\Users\\polus\\AppData\\Local\\LTspice\\lib\\sym\\LM5106_TRANS.LIB"
TEXT -384 504 Left 2 !.tran 0 100m 0 10n
